&time_control
 run_days                    = 3,         ! Length of time to simulate.
 run_hours                   = 6,	  
 run_minutes                 = 0,	  
 run_seconds                 = 0,	  
 start_year                  = 2000,	  ! Simulation start time.
 start_month                 = 05,	  
 start_day                   = 17,	  
 start_hour                  = 06,	  
 start_minute                = 00,	  
 start_second                = 00,	  
 history_interval            = 120,       ! Output timestep [min].
 frames_per_outfile          = 3,         ! One file per 6 h, to match restarts.
 restart                     = .true.,    ! Restart using wrfrst file?
 restart_interval            = 360,       ! Restart interval [min] (1440=1d).
 io_form_history             = 2,         ! NetCDF format output files.
 io_form_restart             = 2,	  ! NetCDF format restart file.
 io_form_input               = 2,	  ! NetCDF format input files.
 io_form_boundary            = 2,	  ! NetCDF format boundary files.
 debug_level                 = 0,         ! No special debugging.
 override_restart_timers     = .true.,    ! Override restart file settings.
 write_hist_at_0h_rst        = .true.,    ! Overwrite restart time output.
 /

 &domains
 time_step                   = 1,         ! Time steps length [s].
 time_step_fract_num         = 0,         ! Fractional time step numerator.
 time_step_fract_den         = 1,         ! Fractional time step denominator.
 max_dom                     = 1,         ! Number of domains.
 s_we                        = 1,         ! W-E starting grid num.
 e_we                        = 201,       ! W-E ending grid num.
 s_sn                        = 1,         ! S-N starting grid num.
 e_sn                        = 201,       ! S-N ending grid num.
 s_vert                      = 1,         ! Vertical starting grid num.
 e_vert                      = 372,       ! Vertical ending grid num.
 dx                          = 100,       ! Grid spacing W-E [m].
 dy                          = 100,       ! Grid spacing S-N [m].
 ztop                        = 32809,     ! Top of domain [m].
 eta_levels		     = 0.999594, 0.998808, 0.998021, 0.997234, 0.996447, 0.995379, 0.993917,
 0.992287, 0.990657, 0.989083, 0.987456, 0.985779, 0.984047, 0.982316,
 0.980584, 0.978799, 0.976966, 0.975024, 0.973028, 0.971031, 0.969091,
 0.967049, 0.964794, 0.962538, 0.960338, 0.958137, 0.955783, 0.953275,
 0.950714, 0.948153, 0.945592, 0.942932, 0.940071, 0.937052, 0.934088,
 0.931123, 0.928113, 0.924857, 0.921293, 0.917730, 0.914219, 0.910713,
 0.906870, 0.902632, 0.898342, 0.893999, 0.889657, 0.885151, 0.880177,
 0.874951, 0.869776, 0.864601, 0.859321, 0.853514, 0.847233, 0.840953,
 0.834672, 0.828429, 0.821850, 0.814802, 0.807657, 0.800512, 0.793385,
 0.786074, 0.778375, 0.770491, 0.762606, 0.754722, 0.746848, 0.738784,
 0.730474, 0.722119, 0.713809, 0.705624, 0.697334, 0.688859, 0.680384,
 0.671910, 0.663576, 0.655442, 0.647369, 0.639296, 0.631223, 0.623305,
 0.615582, 0.607900, 0.600218, 0.592536, 0.585018, 0.577686, 0.570376,
 0.563067, 0.555757, 0.548621, 0.541666, 0.534717, 0.527768, 0.520826,
 0.514055, 0.507448, 0.500841, 0.494235, 0.487648, 0.481226, 0.474950,
 0.468673, 0.462397, 0.456152, 0.450062, 0.444098, 0.438133, 0.432168,
 0.426247, 0.420475, 0.414811, 0.409146, 0.403482, 0.397871, 0.392402,
 0.387020, 0.381638, 0.376256, 0.370940, 0.365760, 0.360651, 0.355541,
 0.350431, 0.345399, 0.340494, 0.335640, 0.330786, 0.325932, 0.321170,
 0.316532, 0.311925, 0.307318, 0.302712, 0.298210, 0.293824, 0.289450,
 0.285076, 0.280711, 0.276459, 0.272311, 0.268164, 0.264016, 0.259898,
 0.255887, 0.251953, 0.248019, 0.244084, 0.240203, 0.236425, 0.232700,
 0.228974, 0.225248, 0.221597, 0.218044, 0.214516, 0.210987, 0.207462,
 0.204034, 0.200699, 0.197364, 0.194030, 0.190726, 0.187516, 0.184366,
 0.181216, 0.178067, 0.174980, 0.171987, 0.169025, 0.166063, 0.163102,
 0.160235, 0.157463, 0.154691, 0.151919, 0.149181, 0.146546, 0.143981,
 0.141416, 0.138851, 0.136348, 0.133949, 0.131594, 0.129238, 0.126883,
 0.124607, 0.122436, 0.120290, 0.118143, 0.115997, 0.113930, 0.111956,
 0.109997, 0.108037, 0.106077, 0.104195, 0.102399, 0.100612, 0.098824,
 0.097036, 0.095316, 0.093669, 0.092029, 0.090388, 0.088747, 0.087169,
 0.085660, 0.084156, 0.082653, 0.081149, 0.079699, 0.078308, 0.076923,
 0.075538, 0.074153, 0.072819, 0.071541, 0.070270, 0.068999, 0.067727,
 0.066499, 0.065321, 0.064149, 0.062977, 0.061805, 0.060675, 0.059593,
 0.058517, 0.057442, 0.056366, 0.055326, 0.054329, 0.053337, 0.052345,
 0.051353, 0.050396, 0.049481, 0.048571, 0.047662, 0.046752, 0.045872,
 0.045027, 0.044189, 0.043350, 0.042511, 0.041701, 0.040926, 0.040158,
 0.039389, 0.038620, 0.037876, 0.037161, 0.036451, 0.035742, 0.035033,
 0.034347, 0.033692, 0.033042, 0.032392, 0.031743, 0.031113, 0.030507,
 0.029907, 0.029307, 0.028707, 0.028127, 0.027572, 0.027023, 0.026474,
 0.025925, 0.025392, 0.024879, 0.024371, 0.023864, 0.023356, 0.022865,
 0.022396, 0.021932, 0.021467, 0.021003, 0.020552, 0.020118, 0.019688,
 0.019259, 0.018830, 0.018414, 0.018017, 0.017625, 0.017232, 0.016840,
 0.016458, 0.016091, 0.015727, 0.015364, 0.015001, 0.014649, 0.014313,
 0.013982, 0.013651, 0.013319, 0.012996, 0.012685, 0.012378, 0.012070,
 0.011763, 0.011465, 0.011181, 0.010901, 0.010621, 0.010341, 0.010068,
 0.009804, 0.009544, 0.009284, 0.009024, 0.008772, 0.008531, 0.008294,
 0.008058, 0.007821, 0.007590, 0.007366, 0.007146, 0.006926, 0.006706,
 0.006492, 0.006288, 0.006089, 0.005889, 0.005689, 0.005493, 0.005304,
 0.005118, 0.004932, 0.004745, 0.004564, 0.004392, 0.004224, 0.004055,
 0.003887, 0.003721, 0.003561, 0.003404, 0.003247, 0.003089, 0.002936,
 0.002790, 0.002648, 0.002506, 0.002364, 0.002224, 0.002089, 0.001956,
 0.001823, 0.001689, 0.001559, 0.001436, 0.001316, 0.001196, 0.001076,
 0.000958, 0.000843, 0.000730, 0.000617, 0.000504, 0.000391, 0.000279,
 0.000166
 /
 
 &rce_control
 ssttsk                      = 301.15,    ! Starting surface temperature [K].
 light_nudging               = .false.,   ! Light nudging on U and V fields?
 ideal_evaporation           = .true.,    ! Use ideal evaporation?
 surface_wind                = 5,         ! Surface U wind for fluxes [m s-1].
 const_rad_cooling           = .true., 	  ! Constant radiative cooling.
 relax_u_winds               = .true.,    ! Relax U, V winds to a profile?
 relax_v_winds               = .true.,    ! Relax U, V winds to a profile?
 relax_mean_wind             = .true.,    ! Relax mean winds instead of point-by-point.
 extend_wind_relax_u         = .true.,    ! Relax whole U wind column.
 extend_wind_relax_v         = .true.,    ! Relax whole V wind column.
 wind_relaxation_time        = 10800,     ! Wind relaxation time [s].
 relax_stratosphere          = .true.,    ! Relax T and q in stratosphere.
 relax_t_profile_file        = 'RCE_T'    ! T target profile file.
 relax_q_profile_file        = 'RCE_q'    ! q target profile file.
 relax_u_profile_file        = 'U_target' ! U target profile file.
 relax_v_profile_file        = 'V_target' ! V target profile file.
 /

 &lrf_control
 perturb_t                   = .false.,   ! Perturb temperature?
 perturb_q                   = .false.,   ! Perturb humidity?
 p_pert           	     = 850,       ! Pressure (level) for maximum perturbation [hPa].
 TtendAmp                    = 0.5,       ! T tendency amplitude [K day-1].
 QtendAmp                    = 0.0002,    ! QV tend. amplitude [kg kg-1 day-1].
 /

 &physics
 mp_physics                  = 8,         ! Thompson 2-moment scheme.
 ra_lw_physics               = 4,         ! RRTMG scheme.
 ra_sw_physics               = 4,         ! RRTMG scheme.
 radt                        = 1,         ! Minutes between rad. scheme calls
                                          ! (Should be 1 min per km in dx).
 sf_sfclay_physics           = 1,         ! Revised MM5 Monin-Obukhov scheme.
 sf_surface_physics          = 1,         ! Thermal diffusion scheme.
 bl_pbl_physics              = 0,         ! Yonsei University scheme.
 bldt                        = 0,         ! Call PBL scheme every time step.
 cu_physics                  = 0,         ! No cumulus parameterisation.
 cudt                        = 0,         ! No cumulus parameterisation.
 num_soil_layers             = 5,         ! Thermal diffusion for temp. only.
 /

 &dynamics
 hybrid_opt                  = 0,         ! Use terrain following coordinates.
 rk_ord                      = 3,         ! Runge-Kutta 3rd-order time-integ.
 diff_opt                    = 2,         ! Full 3D diffusion.
 km_opt                      = 2,         ! 3D TKE diffusion as per em_quarter_ss
 			       		  ! and em_les ideal cases.
 damp_opt                    = 3,         ! Implicit damping of w in top layer.
 dampcoef                    = 0.2,       ! Damping coefficient.
 zdamp                       = 5000.,     ! Damping depth from model top.
 khdif                       = 250,       ! Horizontal. diffusion constant.
 kvdif                       = 250,       ! Vertical. diffusion constant.
 smdiv                       = 0.1,       ! Divergence damping.
 emdiv                       = 0.01,      ! External filter mass-coord model.
 epssm                       = 0.1,       ! Time offcentering vert. sound waves.
 time_step_sound             = 6,         ! Number of sound steps per time step.
 h_mom_adv_order             = 5,         ! Momentum/scalar advection orders.
 v_mom_adv_order             = 3,         !
 h_sca_adv_order             = 5,         !
 v_sca_adv_order             = 3,         !
 pert_coriolis               = .true.,	  ! Coriolis force acts only on wind pert.
 non_hydrostatic             = .true.,    ! (Default) hydrostatic mode.
 mix_full_fields             = .true.,    ! Required true if diff_opt = 2.
 /

 &bdy_control
 periodic_x                  = .true.,    ! Periodic, non-symmetric domain in x axis.
 symmetric_xs                = .false.,
 symmetric_xe                = .false.,
 open_xs                     = .false., 
 open_xe                     = .false., 
 periodic_y                  = .true.,    ! Periodic, non-symmetric domain in y axis.
 symmetric_ys                = .false.,
 symmetric_ye                = .false.,
 open_ys                     = .false., 
 open_ye                     = .false.,
 /

 &namelist_quilt
 nio_tasks_per_group         = 0,         ! No quilting.
 nio_groups                  = 1,
 /

 &ideal
 ideal_case                  = 2
 /
