&time_control
 run_days                    = 45,        ! Length of time to simulate.
 run_hours                   = 0,	  
 run_minutes                 = 0,	  
 run_seconds                 = 0,	  
 start_year                  = 2000,	  ! Simulation start time.
 start_month                 = 04,	  
 start_day                   = 01,	  
 start_hour                  = 00,	  
 start_minute                = 00,	  
 start_second                = 00,	  
 history_interval            = 120,       ! Output timestep [min].
 frames_per_outfile          = 3,         ! One file per 6 h, to match restarts.
 restart                     = .false.,   ! Restart using wrfrst file?
 restart_interval            = 360,       ! Restart interval [min] (1440=1d).
 io_form_history             = 2,         ! NetCDF format output files.
 io_form_restart             = 2,	  ! NetCDF format restart file.
 io_form_input               = 2,	  ! NetCDF format input files.
 io_form_boundary            = 2,	  ! NetCDF format boundary files.
 debug_level                 = 0,         ! No special debugging.
 override_restart_timers     = .true.,    ! Override restart file settings.
 write_hist_at_0h_rst        = .true.,    ! Overwrite restart time output.
 /

 &domains
 time_step                   = 1,         ! Time steps length [s].
 time_step_fract_num         = 0,         ! Fractional time step numerator.
 time_step_fract_den         = 1,         ! Fractional time step denominator.
 max_dom                     = 1,         ! Number of domains.
 s_we                        = 1,         ! W-E starting grid num.
 e_we                        = 201,       ! W-E ending grid num.
 s_sn                        = 1,         ! S-N starting grid num.
 e_sn                        = 201,       ! S-N ending grid num.
 s_vert                      = 1,         ! Vertical starting grid num.
 e_vert                      = 371,       ! Vertical ending grid num.
 dx                          = 100,       ! Grid spacing W-E [m].
 dy                          = 100,       ! Grid spacing S-N [m].
 ztop                        = 32765,     ! Top of domain [m].
 eta_levels		     = 0.999594, 0.998806, 0.998018, 0.997231, 0.996443, 0.995374, 0.993911,
 0.992279, 0.990648, 0.989072, 0.987444, 0.985765, 0.984032, 0.982299,
 0.980566, 0.978780, 0.976944, 0.975001, 0.973003, 0.971005, 0.969063,
 0.967019, 0.964762, 0.962504, 0.960302, 0.958099, 0.955743, 0.953233,
 0.950670, 0.948106, 0.945543, 0.942881, 0.940017, 0.936996, 0.934029,
 0.931062, 0.928050, 0.924791, 0.921223, 0.917656, 0.914142, 0.910633,
 0.906786, 0.902543, 0.898247, 0.893899, 0.889552, 0.885040, 0.880060,
 0.874826, 0.869643, 0.864460, 0.859174, 0.853358, 0.847065, 0.840773,
 0.834480, 0.828229, 0.821640, 0.814577, 0.807417, 0.800257, 0.793120,
 0.785798, 0.778080, 0.770177, 0.762274, 0.754371, 0.746486, 0.738409,
 0.730077, 0.721702, 0.713370, 0.705174, 0.696873, 0.688375, 0.679878,
 0.671381, 0.663037, 0.654895, 0.646800, 0.638706, 0.630611, 0.622687,
 0.614960, 0.607257, 0.599555, 0.591853, 0.584332, 0.576997, 0.569668,
 0.562339, 0.555021, 0.547885, 0.540916, 0.533948, 0.526980, 0.520038,
 0.513269, 0.506643, 0.500017, 0.493392, 0.486808, 0.480389, 0.474094,
 0.467799, 0.461505, 0.455264, 0.449180, 0.443197, 0.437214, 0.431232,
 0.425317, 0.419552, 0.413870, 0.408188, 0.402506, 0.396903, 0.391441,
 0.386042, 0.380643, 0.375244, 0.369937, 0.364766, 0.359640, 0.354513,
 0.349386, 0.344363, 0.339468, 0.334598, 0.329727, 0.324857, 0.320105,
 0.315478, 0.310855, 0.306232, 0.301624, 0.297134, 0.292744, 0.288354,
 0.283964, 0.279612, 0.275373, 0.271210, 0.267046, 0.262883, 0.258779,
 0.254781, 0.250831, 0.246882, 0.242932, 0.239066, 0.235304, 0.231564,
 0.227823, 0.224089, 0.220454, 0.216911, 0.213367, 0.209824, 0.206317,
 0.202907, 0.199558, 0.196209, 0.192860, 0.189575, 0.186383, 0.183220,
 0.180056, 0.176896, 0.173831, 0.170855, 0.167880, 0.164904, 0.161966,
 0.159124, 0.156339, 0.153554, 0.150769, 0.148062, 0.145460, 0.142885,
 0.140311, 0.137739, 0.135273, 0.132912, 0.130551, 0.128190, 0.125852,
 0.123620, 0.121471, 0.119322, 0.117174, 0.115054, 0.113029, 0.111069,
 0.109109, 0.107149, 0.105220, 0.103377, 0.101590, 0.099802, 0.098015,
 0.096254, 0.094568, 0.092928, 0.091287, 0.089647, 0.088032, 0.086485,
 0.084982, 0.083478, 0.081975, 0.080492, 0.079069, 0.077684, 0.076300,
 0.074915, 0.073549, 0.072241, 0.070969, 0.069698, 0.068427, 0.067172,
 0.065966, 0.064794, 0.063622, 0.062450, 0.061294, 0.060185, 0.059110,
 0.058034, 0.056959, 0.055896, 0.054875, 0.053883, 0.052891, 0.051899,
 0.050920, 0.049982, 0.049072, 0.048163, 0.047253, 0.046354, 0.045489,
 0.044651, 0.043812, 0.042973, 0.042144, 0.041350, 0.040581, 0.039813,
 0.039044, 0.038283, 0.037551, 0.036842, 0.036133, 0.035423, 0.034722,
 0.034050, 0.033400, 0.032751, 0.032101, 0.031457, 0.030838, 0.030238,
 0.029638, 0.029038, 0.028444, 0.027875, 0.027326, 0.026777, 0.026228,
 0.025683, 0.025159, 0.024651, 0.024144, 0.023636, 0.023133, 0.022652,
 0.022187, 0.021723, 0.021259, 0.020798, 0.020354, 0.019925, 0.019496,
 0.019066, 0.018640, 0.018233, 0.017841, 0.017449, 0.017057, 0.016666,
 0.016291, 0.015928, 0.015565, 0.015201, 0.014841, 0.014496, 0.014165,
 0.013833, 0.013502, 0.013172, 0.012854, 0.012547, 0.012240, 0.011933,
 0.011627, 0.011335, 0.011055, 0.010775, 0.010496, 0.010217, 0.009947,
 0.009687, 0.009427, 0.009168, 0.008909, 0.008661, 0.008425, 0.008188,
 0.007952, 0.007716, 0.007488, 0.007268, 0.007047, 0.006827, 0.006608,
 0.006398, 0.006199, 0.005999, 0.005799, 0.005599, 0.005407, 0.005220,
 0.005034, 0.004848, 0.004662, 0.004485, 0.004317, 0.004148, 0.003980,
 0.003812, 0.003649, 0.003491, 0.003334, 0.003177, 0.003019, 0.002869,
 0.002727, 0.002585, 0.002443, 0.002301, 0.002163, 0.002030, 0.001897,
 0.001763, 0.001630, 0.001503, 0.001383, 0.001263, 0.001143, 0.001023,
 0.000906, 0.000793, 0.000680, 0.000567, 0.000454, 0.000341, 0.000228
 /
 
 &rce_control
 ssttsk                      = 301.15,    ! Starting surface temperature [K].
 light_nudging               = .false.,   ! Light nudging on U and V fields?
 ideal_evaporation           = .true.,    ! Use ideal evaporation?
 surface_wind                = 4.8,       ! Surface U wind for fluxes [m s-1].
 const_rad_cooling           = .true., 	  ! Constant radiative cooling.
 relax_uv_winds              = .true.,    ! Relax U, V winds to a profile?
 wind_relaxation_time        = 345600     ! Wind relaxation time [s].
 relax_stratosphere          = .true.,    ! Relax T and q in stratosphere.
 relax_t_profile_file        = 'RCE_T'    ! T target profile file.
 relax_q_profile_file        = 'RCE_q'    ! q target profile file.
 relax_u_profile_file        = 'U_target' ! U target profile file.
 relax_v_profile_file        = 'V_target' ! V target profile file.
 /

 &lrf_control
 perturb_t                   = .false.,   ! Perturb temperature?
 perturb_q                   = .false.,   ! Perturb humidity?
 p_pert           	     = 850,       ! Pressure (level) for maximum perturbation [hPa].
 TtendAmp                    = 0.5,       ! T tendency amplitude [K day-1].
 QtendAmp                    = 0.0002,    ! QV tend. amplitude [kg kg-1 day-1].
 /

 &physics
 mp_physics                  = 8,         ! Thompson 2-moment scheme.
 ra_lw_physics               = 4,         ! RRTMG scheme.
 ra_sw_physics               = 4,         ! RRTMG scheme.
 radt                        = 1,         ! Minutes between rad. scheme calls
                                          ! (Should be 1 min per km in dx).
 sf_sfclay_physics           = 1,         ! Revised MM5 Monin-Obukhov scheme.
 sf_surface_physics          = 1,         ! Thermal diffusion scheme.
 bl_pbl_physics              = 0,         ! Yonsei University scheme.
 bldt                        = 0,         ! Call PBL scheme every time step.
 cu_physics                  = 0,         ! No cumulus parameterisation.
 cudt                        = 0,         ! No cumulus parameterisation.
 num_soil_layers             = 5,         ! Thermal diffusion for temp. only.
 /

 &dynamics
 hybrid_opt                  = 0,         ! Use terrain following coordinates.
 rk_ord                      = 3,         ! Runge-Kutta 3rd-order time-integ.
 diff_opt                    = 2,         ! Full 3D diffusion.
 km_opt                      = 2,         ! 3D TKE diffusion as per em_quarter_ss
 			       		  ! and em_les ideal cases.
 damp_opt                    = 3,         ! Implicit damping of w in top layer.
 dampcoef                    = 0.2,       ! Damping coefficient.
 zdamp                       = 5000.,     ! Damping depth from model top.
 khdif                       = 250,       ! Horizontal. diffusion constant.
 kvdif                       = 250,       ! Vertical. diffusion constant.
 smdiv                       = 0.1,       ! Divergence damping.
 emdiv                       = 0.01,      ! External filter mass-coord model.
 epssm                       = 0.1,       ! Time offcentering vert. sound waves.
 time_step_sound             = 6,         ! Number of sound steps per time step.
 h_mom_adv_order             = 5,         ! Momentum/scalar advection orders.
 v_mom_adv_order             = 3,         !
 h_sca_adv_order             = 5,         !
 v_sca_adv_order             = 3,         !
 pert_coriolis               = .true.,	  ! Coriolis force acts only on wind pert.
 non_hydrostatic             = .true.,    ! (Default) hydrostatic mode.
 mix_full_fields             = .true.,    ! Required true if diff_opt = 2.
 /

 &bdy_control
 periodic_x                  = .true.,    ! Periodic, non-symmetric domain in x axis.
 symmetric_xs                = .false.,
 symmetric_xe                = .false.,
 open_xs                     = .false., 
 open_xe                     = .false., 
 periodic_y                  = .true.,    ! Periodic, non-symmetric domain in y axis.
 symmetric_ys                = .false.,
 symmetric_ye                = .false.,
 open_ys                     = .false., 
 open_ye                     = .false.,
 /

 &namelist_quilt
 nio_tasks_per_group         = 0,         ! No quilting.
 nio_groups                  = 1,
 /

 &ideal
 ideal_case                  = 2
 /
